REMARK  Name = 
REMARK  5 active torsions:
REMARK  status: ('A' for Active; 'I' for Inactive)
REMARK    1  A    between atoms: C_2  and  O_3
REMARK    2  A    between atoms: C_2  and  C_13
REMARK    3  A    between atoms: O_3  and  O_4
REMARK    4  A    between atoms: O_4  and  C_5
REMARK    5  A    between atoms: C_5  and  C_7
REMARK                            x       y       z     vdW  Elec       q    Type
REMARK                         _______ _______ _______ _____ _____    ______ ____
ROOT
ATOM      3  O   UNL     1      -0.784  -0.033  -1.529  0.00  0.00    +0.000 OA
ENDROOT
BRANCH   3   2
ATOM      1  O   UNL     1      -0.606  -1.868  -0.241  0.00  0.00    +0.000 OA
ATOM      2  C   UNL     1      -1.386  -1.015  -0.737  0.00  0.00    +0.000 C 
BRANCH   2  13
ATOM     13  C   UNL     1      -2.692  -0.751  -0.120  0.00  0.00    +0.000 A 
ATOM     14  C   UNL     1      -2.816  -0.369   1.209  0.00  0.00    +0.000 A 
ATOM     15  C   UNL     1      -3.600   0.705   1.603  0.00  0.00    +0.000 A 
ATOM     16  C   UNL     1      -4.575   1.136   0.718  0.00  0.00    +0.000 A 
ATOM     17  C   UNL     1      -4.758   0.459  -0.481  0.00  0.00    +0.000 A 
ATOM     18  C   UNL     1      -3.705  -0.312  -0.957  0.00  0.00    +0.000 A 
ENDBRANCH   2  13
ENDBRANCH   3   2
BRANCH   3   4
ATOM      4  O   UNL     1       0.564   0.182  -1.525  0.00  0.00    +0.000 OA
BRANCH   4   5
ATOM      5  C   UNL     1       1.203   0.562  -0.341  0.00  0.00    +0.000 C 
ATOM      6  O   UNL     1       0.492   1.065   0.554  0.00  0.00    +0.000 OA
BRANCH   5   7
ATOM      7  C   UNL     1       2.528   0.098   0.025  0.00  0.00    +0.000 A 
ATOM      8  C   UNL     1       2.747  -0.760   1.096  0.00  0.00    +0.000 A 
ATOM      9  C   UNL     1       3.977  -0.755   1.725  0.00  0.00    +0.000 A 
ATOM     10  C   UNL     1       4.961   0.151   1.365  0.00  0.00    +0.000 A 
ATOM     11  C   UNL     1       4.820   0.809   0.159  0.00  0.00    +0.000 A 
ATOM     12  C   UNL     1       3.631   0.696  -0.530  0.00  0.00    +0.000 A 
ENDBRANCH   5   7
ENDBRANCH   4   5
ENDBRANCH   3   4
TORSDOF 5
