REMARK  Name = 
REMARK  1 active torsions:
REMARK  status: ('A' for Active; 'I' for Inactive)
REMARK    1  A    between atoms: C_6  and  C_7
REMARK                            x       y       z     vdW  Elec       q    Type
REMARK                         _______ _______ _______ _____ _____    ______ ____
ROOT
ATOM      1  C   UNL     1      -2.046   1.416   1.135  0.00  0.00    +0.000 C 
ATOM      2  N   UNL     1      -1.779   0.550   0.568  0.00  0.00    +0.000 NA
ATOM      3  C   UNL     1      -1.589  -0.813   0.827  0.00  0.00    +0.000 C 
ATOM      4  C   UNL     1      -2.298  -1.276  -0.448  0.00  0.00    +0.000 C 
ATOM      5  C   UNL     1      -1.486  -0.611  -1.466  0.00  0.00    +0.000 C 
ATOM      6  C   UNL     1      -0.972   0.784  -0.764  0.00  0.00    +0.000 C 
ENDROOT
BRANCH   6   7
ATOM      7  C   UNL     1       0.356   0.117  -0.128  0.00  0.00    +0.000 A 
ATOM      8  C   UNL     1       1.100  -0.674  -0.977  0.00  0.00    +0.000 A 
ATOM      9  C   UNL     1       2.266  -1.182  -0.410  0.00  0.00    +0.000 A 
ATOM     10  C   UNL     1       2.955  -0.307   0.419  0.00  0.00    +0.000 A 
ATOM     11  N   UNL     1       2.384   0.850   0.802  0.00  0.00    +0.000 NA
ATOM     12  C   UNL     1       1.109   1.145   0.441  0.00  0.00    +0.000 A 
ENDBRANCH   6   7
TORSDOF 1
