REMARK  Name = 
REMARK  6 active torsions:
REMARK  status: ('A' for Active; 'I' for Inactive)
REMARK    1  A    between atoms: N_2  and  C_4
REMARK    2  A    between atoms: C_4  and  C_5
REMARK    3  A    between atoms: C_5  and  O_6
REMARK    4  A    between atoms: O_6  and  C_7
REMARK    5  A    between atoms: C_7  and  C_8
REMARK    6  A    between atoms: C_7  and  C_14
REMARK                            x       y       z     vdW  Elec       q    Type
REMARK                         _______ _______ _______ _____ _____    ______ ____
ROOT
ATOM      7  C   UNL     1      -0.210  -0.123  -0.789  0.00  0.00    +0.000 C 
ENDROOT
BRANCH   7   8
ATOM      8  C   UNL     1      -0.639   1.293  -0.653  0.00  0.00    +0.000 A 
ATOM      9  C   UNL     1      -1.954   1.681  -0.869  0.00  0.00    +0.000 A 
ATOM     10  C   UNL     1      -2.459   2.794  -0.218  0.00  0.00    +0.000 A 
ATOM     11  C   UNL     1      -1.635   3.548   0.593  0.00  0.00    +0.000 A 
ATOM     12  C   UNL     1      -0.274   3.460   0.374  0.00  0.00    +0.000 A 
ATOM     13  C   UNL     1       0.183   2.254  -0.100  0.00  0.00    +0.000 A 
ENDBRANCH   7   8
BRANCH   7  14
ATOM     14  C   UNL     1      -1.292  -1.032  -0.331  0.00  0.00    +0.000 A 
ATOM     15  C   UNL     1      -1.736  -0.904   0.975  0.00  0.00    +0.000 A 
ATOM     16  C   UNL     1      -2.182  -1.974   1.725  0.00  0.00    +0.000 A 
ATOM     17  C   UNL     1      -2.265  -3.200   1.104  0.00  0.00    +0.000 A 
ATOM     18  C   UNL     1      -2.233  -3.244  -0.265  0.00  0.00    +0.000 A 
ATOM     19  C   UNL     1      -1.500  -2.275  -0.917  0.00  0.00    +0.000 A 
ENDBRANCH   7  14
BRANCH   7   6
ATOM      6  O   UNL     1       0.973  -0.304  -0.064  0.00  0.00    +0.000 OA
BRANCH   6   5
ATOM      5  C   UNL     1       1.878  -1.128  -0.710  0.00  0.00    +0.000 C 
BRANCH   5   4
ATOM      4  C   UNL     1       3.081  -0.332  -1.130  0.00  0.00    +0.000 C 
BRANCH   4   2
ATOM      1  C   UNL     1       3.725   0.945   0.812  0.00  0.00    +0.000 C 
ATOM      2  N   UNL     1       4.046  -0.130  -0.090  0.00  0.00    +0.000 NA
ATOM      3  C   UNL     1       4.493  -1.327   0.556  0.00  0.00    +0.000 C 
ENDBRANCH   4   2
ENDBRANCH   5   4
ENDBRANCH   6   5
ENDBRANCH   7   6
TORSDOF 6
