REMARK  Name = 
REMARK  3 active torsions:
REMARK  status: ('A' for Active; 'I' for Inactive)
REMARK    1  A    between atoms: C_2  and  C_4
REMARK    2  A    between atoms: C_2  and  C_12
REMARK    3  A    between atoms: C_4  and  C_5
REMARK                            x       y       z     vdW  Elec       q    Type
REMARK                         _______ _______ _______ _____ _____    ______ ____
ROOT
ATOM      4  C   UNL     1      -0.647  -1.121   0.739  0.00  0.00    +0.000 C 
ENDROOT
BRANCH   4   5
ATOM      5  C   UNL     1       0.575  -0.442   0.246  0.00  0.00    +0.000 A 
ATOM      6  C   UNL     1       1.346  -1.015  -0.758  0.00  0.00    +0.000 A 
ATOM      7  C   UNL     1       2.552  -0.408  -1.085  0.00  0.00    +0.000 A 
ATOM      8  C   UNL     1       2.951   0.749  -0.457  0.00  0.00    +0.000 A 
ATOM      9  O   UNL     1       4.004   1.514  -0.951  0.00  0.00    +0.000 OA
ATOM     10  C   UNL     1       2.479   0.946   0.833  0.00  0.00    +0.000 A 
ATOM     11  C   UNL     1       1.236   0.402   1.130  0.00  0.00    +0.000 A 
ENDBRANCH   4   5
BRANCH   4   2
ATOM      1  C   UNL     1      -2.812  -1.796   0.043  0.00  0.00    +0.000 C 
ATOM      2  C   UNL     1      -1.883  -0.748  -0.032  0.00  0.00    +0.000 C 
ATOM      3  N   UNL     1      -1.628  -0.485  -1.429  0.00  0.00    +0.000 NA
BRANCH   2  12
ATOM     12  C   UNL     1      -2.535   0.449   0.583  0.00  0.00    +0.000 C 
ATOM     13  O   UNL     1      -3.298   1.158  -0.108  0.00  0.00    +0.000 OA
ATOM     14  O   UNL     1      -2.340   0.797   1.916  0.00  0.00    +0.000 OA
ENDBRANCH   2  12
ENDBRANCH   4   2
TORSDOF 3
