REMARK  Name = 
REMARK  6 active torsions:
REMARK  status: ('A' for Active; 'I' for Inactive)
REMARK    1  A    between atoms: O_2  and  C_3
REMARK    2  A    between atoms: C_10  and  C_11
REMARK    3  A    between atoms: C_11  and  C_12
REMARK    4  A    between atoms: C_13  and  C_15
REMARK    5  A    between atoms: C_15  and  C_16
REMARK    6  A    between atoms: C_16  and  C_17
REMARK                            x       y       z     vdW  Elec       q    Type
REMARK                         _______ _______ _______ _____ _____    ______ ____
ROOT
ATOM      3  C   UNL     1      -1.552   0.506   1.559  0.00  0.00    +0.000 A 
ATOM      4  C   UNL     1      -2.154  -0.713   1.327  0.00  0.00    +0.000 A 
ATOM      5  C   UNL     1      -2.562  -1.499   2.518  0.00  0.00    +0.000 C 
ATOM      6  C   UNL     1      -2.328  -1.194   0.043  0.00  0.00    +0.000 A 
ATOM      7  C   UNL     1      -1.675  -0.560  -0.987  0.00  0.00    +0.000 A 
ATOM      8  C   UNL     1      -0.873   0.522  -0.751  0.00  0.00    +0.000 A 
ATOM      9  O   UNL     1      -0.521   1.327  -1.839  0.00  0.00    +0.000 OA
ATOM     10  C   UNL     1      -0.834   1.076   0.521  0.00  0.00    +0.000 A 
ATOM     20  C   UNL     1      -2.109  -1.253  -2.200  0.00  0.00    +0.000 C 
ATOM     21  O   UNL     1      -1.677  -1.092  -3.362  0.00  0.00    +0.000 OA
ATOM     22  O   UNL     1      -3.205  -2.031  -1.892  0.00  0.00    +0.000 OA
ATOM     23  C   UNL     1      -3.343  -2.155  -0.485  0.00  0.00    +0.000 C 
ENDROOT
BRANCH   3   2
ATOM      1  C   UNL     1      -2.929   2.260   2.434  0.00  0.00    +0.000 C 
ATOM      2  O   UNL     1      -1.898   1.300   2.657  0.00  0.00    +0.000 OA
ENDBRANCH   3   2
BRANCH  10  11
ATOM     11  C   UNL     1      -0.002   2.284   0.791  0.00  0.00    +0.000 C 
BRANCH  11  12
ATOM     12  C   UNL     1       1.344   2.160   0.151  0.00  0.00    +0.000 C 
ATOM     13  C   UNL     1       2.259   1.295   0.601  0.00  0.00    +0.000 C 
ATOM     14  C   UNL     1       1.754   0.179   1.457  0.00  0.00    +0.000 C 
BRANCH  13  15
ATOM     15  C   UNL     1       3.612   1.229   0.004  0.00  0.00    +0.000 C 
BRANCH  15  16
ATOM     16  C   UNL     1       3.741   0.139  -1.037  0.00  0.00    +0.000 C 
BRANCH  16  17
ATOM     17  C   UNL     1       4.701  -0.919  -0.593  0.00  0.00    +0.000 C 
ATOM     18  O   UNL     1       5.800  -0.594  -0.049  0.00  0.00    +0.000 OA
ATOM     19  O   UNL     1       4.451  -2.267  -0.867  0.00  0.00    +0.000 OA
ENDBRANCH  16  17
ENDBRANCH  15  16
ENDBRANCH  13  15
ENDBRANCH  11  12
ENDBRANCH  10  11
TORSDOF 6
