REMARK  Name = 
REMARK  4 active torsions:
REMARK  status: ('A' for Active; 'I' for Inactive)
REMARK    1  A    between atoms: C_2  and  N_5
REMARK    2  A    between atoms: N_5  and  C_6
REMARK    3  A    between atoms: C_6  and  C_7
REMARK    4  A    between atoms: C_7  and  C_9
REMARK                            x       y       z     vdW  Elec       q    Type
REMARK                         _______ _______ _______ _____ _____    ______ ____
ROOT
ATOM      7  C   UNL     1       0.681   0.451  -0.528  0.00  0.00    +0.000 C 
ATOM      8  O   UNL     1       0.738  -0.673  -1.555  0.00  0.00    +0.000 OA
ENDROOT
BRANCH   7   9
ATOM      9  C   UNL     1      -0.916   0.269  -0.316  0.00  0.00    +0.000 A 
ATOM     10  C   UNL     1      -1.419  -0.953  -0.073  0.00  0.00    +0.000 A 
ATOM     11  C   UNL     1      -2.730  -1.008   0.401  0.00  0.00    +0.000 A 
ATOM     12  O   UNL     1      -3.210  -2.233   0.837  0.00  0.00    +0.000 OA
ATOM     13  C   UNL     1      -3.535   0.118   0.309  0.00  0.00    +0.000 A 
ATOM     14  C   UNL     1      -2.973   1.358   0.036  0.00  0.00    +0.000 A 
ATOM     15  O   UNL     1      -3.664   2.510   0.388  0.00  0.00    +0.000 OA
ATOM     16  C   UNL     1      -1.645   1.418  -0.353  0.00  0.00    +0.000 A 
ENDBRANCH   7   9
BRANCH   7   6
ATOM      6  C   UNL     1       1.061  -0.559   0.721  0.00  0.00    +0.000 C 
BRANCH   6   5
ATOM      5  N   UNL     1       2.362  -0.980   0.618  0.00  0.00    +0.000 NA
BRANCH   5   2
ATOM      1  C   UNL     1       3.751  -0.026  -1.076  0.00  0.00    +0.000 C 
ATOM      2  C   UNL     1       3.436  -0.143   0.295  0.00  0.00    +0.000 C 
ATOM      3  C   UNL     1       3.400   1.252   0.863  0.00  0.00    +0.000 C 
ATOM      4  C   UNL     1       4.663  -0.801   0.933  0.00  0.00    +0.000 C 
ENDBRANCH   5   2
ENDBRANCH   6   5
ENDBRANCH   7   6
TORSDOF 4
