REMARK  Name = 
REMARK  6 active torsions:
REMARK  status: ('A' for Active; 'I' for Inactive)
REMARK    1  A    between atoms: C_2  and  C_3
REMARK    2  A    between atoms: C_2  and  C_5
REMARK    3  A    between atoms: C_5  and  C_7
REMARK    4  A    between atoms: C_10  and  O_11
REMARK    5  A    between atoms: O_11  and  C_12
REMARK    6  A    between atoms: C_12  and  C_13
REMARK                            x       y       z     vdW  Elec       q    Type
REMARK                         _______ _______ _______ _____ _____    ______ ____
ROOT
ATOM      7  C   UNL     1       1.250  -0.514  -0.267  0.00  0.00    +0.000 A 
ATOM      8  C   UNL     1       0.427  -1.136  -1.196  0.00  0.00    +0.000 A 
ATOM      9  C   UNL     1      -0.957  -1.057  -1.083  0.00  0.00    +0.000 A 
ATOM     10  C   UNL     1      -1.542  -0.306  -0.070  0.00  0.00    +0.000 A 
ATOM     16  C   UNL     1      -0.745  -0.111   1.053  0.00  0.00    +0.000 A 
ATOM     17 CL   UNL     1      -1.474   0.639   2.451  0.00  0.00    +0.000 Cl
ATOM     18  C   UNL     1       0.634  -0.166   0.929  0.00  0.00    +0.000 A 
ATOM     19 CL   UNL     1       1.665   0.196   2.283  0.00  0.00    +0.000 Cl
ENDROOT
BRANCH   7   5
ATOM      5  C   UNL     1       2.505   0.138  -0.658  0.00  0.00    +0.000 C 
ATOM      6  O   UNL     1       2.663   0.674  -1.792  0.00  0.00    +0.000 OA
BRANCH   5   2
ATOM      1  C   UNL     1       4.107   1.480   0.437  0.00  0.00    +0.000 C 
ATOM      2  C   UNL     1       3.633   0.244   0.273  0.00  0.00    +0.000 C 
BRANCH   2   3
ATOM      3  C   UNL     1       4.615  -0.882   0.237  0.00  0.00    +0.000 C 
ATOM      4  C   UNL     1       6.033  -0.343   0.171  0.00  0.00    +0.000 C 
ENDBRANCH   2   3
ENDBRANCH   5   2
ENDBRANCH   7   5
BRANCH  10  11
ATOM     11  O   UNL     1      -2.691   0.458  -0.297  0.00  0.00    +0.000 OA
BRANCH  11  12
ATOM     12  C   UNL     1      -3.756  -0.093  -1.058  0.00  0.00    +0.000 C 
BRANCH  12  13
ATOM     13  C   UNL     1      -5.046   0.479  -0.592  0.00  0.00    +0.000 C 
ATOM     14  O   UNL     1      -5.184   0.627   0.645  0.00  0.00    +0.000 OA
ATOM     15  O   UNL     1      -6.137   0.508  -1.465  0.00  0.00    +0.000 OA
ENDBRANCH  12  13
ENDBRANCH  11  12
ENDBRANCH  10  11
TORSDOF 6
