REMARK  Name = 
REMARK  2 active torsions:
REMARK  status: ('A' for Active; 'I' for Inactive)
REMARK    1  A    between atoms: C_5  and  C_6
REMARK    2  A    between atoms: C_8  and  C_9
REMARK                            x       y       z     vdW  Elec       q    Type
REMARK                         _______ _______ _______ _____ _____    ______ ____
ROOT
ATOM      1  C   UNL     1       3.228  -0.241   0.206  0.00  0.00    +0.000 C 
ATOM      2  C   UNL     1       1.757  -0.416   0.007  0.00  0.00    +0.000 A 
ATOM      3  N   UNL     1       1.325  -1.638  -0.309  0.00  0.00    +0.000 NA
ATOM      4  C   UNL     1       0.000  -1.856  -0.304  0.00  0.00    +0.000 A 
ATOM      5  C   UNL     1      -0.878  -0.785  -0.282  0.00  0.00    +0.000 A 
ATOM      8  C   UNL     1      -0.439   0.532  -0.237  0.00  0.00    +0.000 A 
ATOM     11  C   UNL     1       0.940   0.677  -0.152  0.00  0.00    +0.000 A 
ATOM     12  O   UNL     1       1.443   1.970  -0.228  0.00  0.00    +0.000 OA
ENDROOT
BRANCH   5   6
ATOM      6  C   UNL     1      -2.334  -1.030  -0.092  0.00  0.00    +0.000 C 
ATOM      7  O   UNL     1      -2.618  -1.598   1.146  0.00  0.00    +0.000 OA
ENDBRANCH   5   6
BRANCH   8   9
ATOM      9  C   UNL     1      -1.337   1.552   0.355  0.00  0.00    +0.000 C 
ATOM     10  O   UNL     1      -1.088   2.832  -0.110  0.00  0.00    +0.000 OA
ENDBRANCH   8   9
TORSDOF 2
