REMARK  Name = 
REMARK  3 active torsions:
REMARK  status: ('A' for Active; 'I' for Inactive)
REMARK    1  A    between atoms: C_2  and  O_4
REMARK    2  A    between atoms: O_4  and  C_5
REMARK    3  A    between atoms: C_10  and  C_11
REMARK                            x       y       z     vdW  Elec       q    Type
REMARK                         _______ _______ _______ _____ _____    ______ ____
ROOT
ATOM      5  C   UNL     1      -0.070  -0.365  -0.524  0.00  0.00    +0.000 A 
ATOM      6  C   UNL     1      -0.510  -1.643  -0.252  0.00  0.00    +0.000 A 
ATOM      7  C   UNL     1      -1.644  -1.897   0.473  0.00  0.00    +0.000 A 
ATOM      8  C   UNL     1      -2.491  -0.856   0.787  0.00  0.00    +0.000 A 
ATOM      9  C   UNL     1      -2.191   0.401   0.288  0.00  0.00    +0.000 A 
ATOM     10  C   UNL     1      -0.968   0.664  -0.285  0.00  0.00    +0.000 A 
ENDROOT
BRANCH  10  11
ATOM     11  C   UNL     1      -0.482   2.039  -0.169  0.00  0.00    +0.000 C 
ATOM     12  O   UNL     1       0.710   2.278   0.150  0.00  0.00    +0.000 OA
ATOM     13  O   UNL     1      -1.327   3.128  -0.226  0.00  0.00    +0.000 OA
ENDBRANCH  10  11
BRANCH   5   4
ATOM      4  O   UNL     1       1.288  -0.032  -0.484  0.00  0.00    +0.000 OA
BRANCH   4   2
ATOM      1  C   UNL     1       3.364  -0.611   0.838  0.00  0.00    +0.000 C 
ATOM      2  C   UNL     1       2.259  -0.959  -0.107  0.00  0.00    +0.000 C 
ATOM      3  O   UNL     1       2.061  -2.147  -0.488  0.00  0.00    +0.000 OA
ENDBRANCH   4   2
ENDBRANCH   5   4
TORSDOF 3
