REMARK  Name = 
REMARK  2 active torsions:
REMARK  status: ('A' for Active; 'I' for Inactive)
REMARK    1  A    between atoms: C_2  and  C_4
REMARK    2  A    between atoms: C_4  and  C_6
REMARK                            x       y       z     vdW  Elec       q    Type
REMARK                         _______ _______ _______ _____ _____    ______ ____
ROOT
ATOM      6  C   UNL     1       0.376   0.309  -0.317  0.00  0.00    +0.000 A 
ATOM      7  C   UNL     1       0.036  -0.986  -0.448  0.00  0.00    +0.000 A 
ATOM      8  C   UNL     1      -1.231  -1.377  -0.878  0.00  0.00    +0.000 A 
ATOM      9  C   UNL     1      -2.278  -0.645  -0.328  0.00  0.00    +0.000 A 
ATOM     10  O   UNL     1      -3.360  -1.240   0.330  0.00  0.00    +0.000 OA
ATOM     11  C   UNL     1      -2.041   0.723  -0.270  0.00  0.00    +0.000 A 
ATOM     12  O   UNL     1      -3.130   1.551  -0.122  0.00  0.00    +0.000 OA
ATOM     13  C   UNL     1      -0.724   1.170  -0.241  0.00  0.00    +0.000 A 
ENDROOT
BRANCH   6   4
ATOM      4  C   UNL     1       1.415   0.758   0.863  0.00  0.00    +0.000 C 
ATOM      5  O   UNL     1       1.693  -0.661   1.380  0.00  0.00    +0.000 OA
BRANCH   4   2
ATOM      1  C   UNL     1       2.654  -0.776  -0.709  0.00  0.00    +0.000 C 
ATOM      2  C   UNL     1       2.800   0.781  -0.211  0.00  0.00    +0.000 C 
ATOM      3  N   UNL     1       3.790   0.393   0.951  0.00  0.00    +0.000 NA
ENDBRANCH   4   2
ENDBRANCH   6   4
TORSDOF 2
