REMARK  Name = 
REMARK  0 active torsions:
REMARK  status: ('A' for Active; 'I' for Inactive)
REMARK                            x       y       z     vdW  Elec       q    Type
REMARK                         _______ _______ _______ _____ _____    ______ ____
ROOT
ATOM      1  C   UNL     1       1.496   1.917   0.179  0.00  0.00    +0.000 C 
ATOM      2  C   UNL     1       0.683   0.698  -0.045  0.00  0.00    +0.000 A 
ATOM      3  C   UNL     1      -0.704   0.696   0.051  0.00  0.00    +0.000 A 
ATOM      4  O   UNL     1      -1.304   1.947   0.155  0.00  0.00    +0.000 OA
ATOM      5  C   UNL     1      -1.423  -0.469  -0.176  0.00  0.00    +0.000 A 
ATOM      6  O   UNL     1      -2.592  -0.490   0.270  0.00  0.00    +0.000 OA
ATOM      7  C   UNL     1      -0.728  -1.604  -0.559  0.00  0.00    +0.000 A 
ATOM      8  C   UNL     1       0.662  -1.551  -0.545  0.00  0.00    +0.000 A 
ATOM      9  N   UNL     1       1.323  -0.492  -0.024  0.00  0.00    +0.000 N 
ATOM     10  C   UNL     1       2.587  -0.651   0.694  0.00  0.00    +0.000 C 
ENDROOT
TORSDOF 0
