REMARK  Name = 
REMARK  6 active torsions:
REMARK  status: ('A' for Active; 'I' for Inactive)
REMARK    1  A    between atoms: C_2  and  N_4
REMARK    2  A    between atoms: N_4  and  C_5
REMARK    3  A    between atoms: C_5  and  C_6
REMARK    4  A    between atoms: C_6  and  C_8
REMARK    5  A    between atoms: C_8  and  O_9
REMARK    6  A    between atoms: O_9  and  C_10
REMARK                            x       y       z     vdW  Elec       q    Type
REMARK                         _______ _______ _______ _____ _____    ______ ____
ROOT
ATOM     10  C   UNL     1      -1.211  -0.948  -0.286  0.00  0.00    +0.000 A 
ATOM     11  C   UNL     1      -1.869  -2.174  -0.357  0.00  0.00    +0.000 A 
ATOM     12  C   UNL     1      -3.212  -2.298  -0.130  0.00  0.00    +0.000 A 
ATOM     13  C   UNL     1      -3.974  -1.151  -0.200  0.00  0.00    +0.000 A 
ATOM     14  C   UNL     1      -3.372   0.090  -0.266  0.00  0.00    +0.000 A 
ATOM     15  C   UNL     1      -4.147   1.182   0.107  0.00  0.00    +0.000 A 
ATOM     16  C   UNL     1      -3.540   2.289   0.686  0.00  0.00    +0.000 A 
ATOM     17  C   UNL     1      -2.160   2.410   0.572  0.00  0.00    +0.000 A 
ATOM     18  C   UNL     1      -1.444   1.415  -0.065  0.00  0.00    +0.000 A 
ATOM     19  C   UNL     1      -2.003   0.170  -0.240  0.00  0.00    +0.000 A 
ENDROOT
BRANCH  10   9
ATOM      9  O   UNL     1       0.062  -0.946  -0.510  0.00  0.00    +0.000 OA
BRANCH   9   8
ATOM      8  C   UNL     1       1.270  -0.473  -0.532  0.00  0.00    +0.000 C 
BRANCH   8   6
ATOM      6  C   UNL     1       1.625   0.368   0.841  0.00  0.00    +0.000 C 
ATOM      7  O   UNL     1       1.078  -0.745   1.722  0.00  0.00    +0.000 OA
BRANCH   6   5
ATOM      5  C   UNL     1       3.153  -0.254   0.916  0.00  0.00    +0.000 C 
BRANCH   5   4
ATOM      4  N   UNL     1       3.668  -0.228  -0.417  0.00  0.00    +0.000 NA
BRANCH   4   2
ATOM      1  C   UNL     1       5.160   1.576  -0.458  0.00  0.00    +0.000 C 
ATOM      2  C   UNL     1       4.981   0.288  -0.585  0.00  0.00    +0.000 C 
ATOM      3  C   UNL     1       5.933  -0.573   0.196  0.00  0.00    +0.000 C 
ENDBRANCH   4   2
ENDBRANCH   5   4
ENDBRANCH   6   5
ENDBRANCH   8   6
ENDBRANCH   9   8
ENDBRANCH  10   9
TORSDOF 6
