REMARK  Name = 
REMARK  1 active torsions:
REMARK  status: ('A' for Active; 'I' for Inactive)
REMARK    1  A    between atoms: C_2  and  C_4
REMARK                            x       y       z     vdW  Elec       q    Type
REMARK                         _______ _______ _______ _____ _____    ______ ____
ROOT
ATOM      4  C   UNL     1       0.260  -0.273   0.074  0.00  0.00    +0.000 A 
ATOM      5  C   UNL     1      -0.313   0.552   1.032  0.00  0.00    +0.000 A 
ATOM      6  N   UNL     1      -1.651   0.735   0.955  0.00  0.00    +0.000 NA
ATOM      7  C   UNL     1      -2.404   0.034   0.079  0.00  0.00    +0.000 A 
ATOM      8  C   UNL     1      -1.745  -0.516  -1.006  0.00  0.00    +0.000 A 
ATOM      9  N   UNL     1      -0.421  -0.788  -0.956  0.00  0.00    +0.000 NA
ENDROOT
BRANCH   4   2
ATOM      1  N   UNL     1       2.480  -0.781   0.640  0.00  0.00    +0.000 NA
ATOM      2  C   UNL     1       1.703  -0.087  -0.126  0.00  0.00    +0.000 C 
ATOM      3  O   UNL     1       2.090   1.123  -0.692  0.00  0.00    +0.000 OA
ENDBRANCH   4   2
TORSDOF 1
