REMARK  Name = 
REMARK  5 active torsions:
REMARK  status: ('A' for Active; 'I' for Inactive)
REMARK    1  A    between atoms: O_2  and  C_3
REMARK    2  A    between atoms: C_8  and  O_9
REMARK    3  A    between atoms: O_9  and  C_10
REMARK    4  A    between atoms: C_10  and  C_11
REMARK    5  A    between atoms: C_11  and  C_13
REMARK                            x       y       z     vdW  Elec       q    Type
REMARK                         _______ _______ _______ _____ _____    ______ ____
ROOT
ATOM      3  C   UNL     1      -1.994   0.322  -0.384  0.00  0.00    +0.000 A 
ATOM      4  C   UNL     1      -3.212  -0.198  -0.024  0.00  0.00    +0.000 A 
ATOM      5  C   UNL     1      -3.258  -1.346   0.740  0.00  0.00    +0.000 A 
ATOM      6  C   UNL     1      -2.065  -1.939   1.127  0.00  0.00    +0.000 A 
ATOM      7  C   UNL     1      -0.870  -1.489   0.615  0.00  0.00    +0.000 A 
ATOM      8  C   UNL     1      -0.809  -0.372  -0.165  0.00  0.00    +0.000 A 
ENDROOT
BRANCH   3   2
ATOM      1  C   UNL     1      -1.918   2.465   0.334  0.00  0.00    +0.000 C 
ATOM      2  O   UNL     1      -1.970   1.705  -0.612  0.00  0.00    +0.000 OA
ENDBRANCH   3   2
BRANCH   8   9
ATOM      9  O   UNL     1       0.316   0.215  -0.673  0.00  0.00    +0.000 OA
BRANCH   9  10
ATOM     10  C   UNL     1       1.567  -0.393  -0.869  0.00  0.00    +0.000 C 
BRANCH  10  11
ATOM     11  C   UNL     1       2.584   0.555   0.077  0.00  0.00    +0.000 C 
ATOM     12  O   UNL     1       3.169   1.248  -1.176  0.00  0.00    +0.000 OA
BRANCH  11  13
ATOM     13  C   UNL     1       3.784  -0.622   0.030  0.00  0.00    +0.000 C 
ATOM     14  O   UNL     1       4.676  -0.152   0.982  0.00  0.00    +0.000 OA
ENDBRANCH  11  13
ENDBRANCH  10  11
ENDBRANCH   9  10
ENDBRANCH   8   9
TORSDOF 5
