REMARK  Name = 
REMARK  1 active torsions:
REMARK  status: ('A' for Active; 'I' for Inactive)
REMARK    1  A    between atoms: C_2  and  C_4
REMARK                            x       y       z     vdW  Elec       q    Type
REMARK                         _______ _______ _______ _____ _____    ______ ____
ROOT
ATOM      4  C   UNL     1       0.274   0.059   0.040  0.00  0.00    +0.000 A 
ATOM      5  C   UNL     1      -0.352  -1.083  -0.447  0.00  0.00    +0.000 A 
ATOM      6  C   UNL     1      -1.724  -1.173  -0.238  0.00  0.00    +0.000 A 
ATOM      7  C   UNL     1      -2.328  -0.107   0.420  0.00  0.00    +0.000 A 
ATOM      8  N   UNL     1      -1.827   1.100   0.055  0.00  0.00    +0.000 NA
ATOM      9  C   UNL     1      -0.482   1.218  -0.065  0.00  0.00    +0.000 A 
ENDROOT
BRANCH   4   2
ATOM      1  N   UNL     1       2.441   0.296  -1.081  0.00  0.00    +0.000 NA
ATOM      2  C   UNL     1       1.727   0.059   0.132  0.00  0.00    +0.000 C 
ATOM      3  O   UNL     1       2.271  -0.368   1.185  0.00  0.00    +0.000 OA
ENDBRANCH   4   2
TORSDOF 1
