REMARK  Name = 
REMARK  0 active torsions:
REMARK  status: ('A' for Active; 'I' for Inactive)
REMARK                            x       y       z     vdW  Elec       q    Type
REMARK                         _______ _______ _______ _____ _____    ______ ____
ROOT
ATOM      1  O   UNL     1      -2.306  -1.101   0.297  0.00  0.00    +0.000 OA
ATOM      2  C   UNL     1      -1.222  -0.362  -0.186  0.00  0.00    +0.000 A 
ATOM      3  C   UNL     1      -1.213   1.013  -0.035  0.00  0.00    +0.000 A 
ATOM      4  C   UNL     1      -0.022   1.728  -0.078  0.00  0.00    +0.000 A 
ATOM      5  C   UNL     1       1.142   1.041   0.247  0.00  0.00    +0.000 A 
ATOM      6  C   UNL     1       1.206  -0.311  -0.067  0.00  0.00    +0.000 A 
ATOM      7  O   UNL     1       2.394  -1.033   0.091  0.00  0.00    +0.000 OA
ATOM      8  C   UNL     1       0.021  -0.975  -0.268  0.00  0.00    +0.000 A 
ENDROOT
TORSDOF 0
