REMARK  Name = 
REMARK  4 active torsions:
REMARK  status: ('A' for Active; 'I' for Inactive)
REMARK    1  A    between atoms: C_2  and  C_4
REMARK    2  A    between atoms: C_4  and  C_5
REMARK    3  A    between atoms: C_5  and  C_6
REMARK    4  A    between atoms: C_6  and  C_7
REMARK                            x       y       z     vdW  Elec       q    Type
REMARK                         _______ _______ _______ _____ _____    ______ ____
ROOT
ATOM      6  C   UNL     1      -0.018   1.446   0.181  0.00  0.00    +0.000 C 
ENDROOT
BRANCH   6   7
ATOM      7  C   UNL     1      -1.222   0.570   0.036  0.00  0.00    +0.000 A 
ATOM      8  C   UNL     1      -1.231  -0.536  -0.802  0.00  0.00    +0.000 A 
ATOM      9  C   UNL     1      -2.456  -1.126  -1.085  0.00  0.00    +0.000 A 
ATOM     10  C   UNL     1      -3.358  -1.124  -0.027  0.00  0.00    +0.000 A 
ATOM     11  C   UNL     1      -3.478   0.104   0.615  0.00  0.00    +0.000 A 
ATOM     12  C   UNL     1      -2.423   1.008   0.581  0.00  0.00    +0.000 A 
ENDBRANCH   6   7
BRANCH   6   5
ATOM      5  C   UNL     1       1.163   0.616  -0.304  0.00  0.00    +0.000 C 
BRANCH   5   4
ATOM      4  C   UNL     1       1.959   0.279   0.949  0.00  0.00    +0.000 C 
BRANCH   4   2
ATOM      1  O   UNL     1       3.900   0.182  -0.416  0.00  0.00    +0.000 OA
ATOM      2  C   UNL     1       3.212  -0.381   0.462  0.00  0.00    +0.000 C 
ATOM      3  O   UNL     1       3.950  -1.036   1.454  0.00  0.00    +0.000 OA
ENDBRANCH   4   2
ENDBRANCH   5   4
ENDBRANCH   6   5
TORSDOF 4
