REMARK  Name = 
REMARK  3 active torsions:
REMARK  status: ('A' for Active; 'I' for Inactive)
REMARK    1  A    between atoms: C_2  and  C_4
REMARK    2  A    between atoms: C_2  and  C_13
REMARK    3  A    between atoms: C_4  and  C_5
REMARK                            x       y       z     vdW  Elec       q    Type
REMARK                         _______ _______ _______ _____ _____    ______ ____
ROOT
ATOM      5  C   UNL     1       0.337  -0.155   0.199  0.00  0.00    +0.000 A 
ATOM      6  C   UNL     1       0.724   0.738  -0.770  0.00  0.00    +0.000 A 
ATOM      7  C   UNL     1       2.006   0.776  -1.248  0.00  0.00    +0.000 A 
ATOM      8  C   UNL     1       3.008   0.116  -0.563  0.00  0.00    +0.000 A 
ATOM      9  O   UNL     1       4.316   0.593  -0.595  0.00  0.00    +0.000 OA
ATOM     10  C   UNL     1       2.658  -0.761   0.432  0.00  0.00    +0.000 A 
ATOM     11  O   UNL     1       3.571  -1.775   0.732  0.00  0.00    +0.000 OA
ATOM     12  C   UNL     1       1.343  -0.922   0.777  0.00  0.00    +0.000 A 
ENDROOT
BRANCH   5   4
ATOM      4  C   UNL     1      -0.941  -0.106   0.930  0.00  0.00    +0.000 C 
BRANCH   4   2
ATOM      1  C   UNL     1      -1.915   0.475  -1.301  0.00  0.00    +0.000 C 
ATOM      2  C   UNL     1      -2.057   0.547   0.172  0.00  0.00    +0.000 C 
ATOM      3  N   UNL     1      -2.213   1.922   0.584  0.00  0.00    +0.000 NA
BRANCH   2  13
ATOM     13  C   UNL     1      -3.299  -0.219   0.509  0.00  0.00    +0.000 C 
ATOM     14  O   UNL     1      -4.118   0.235   1.329  0.00  0.00    +0.000 OA
ATOM     15  O   UNL     1      -3.419  -1.464  -0.109  0.00  0.00    +0.000 OA
ENDBRANCH   2  13
ENDBRANCH   4   2
ENDBRANCH   5   4
TORSDOF 3
