REMARK  Name = 
REMARK  4 active torsions:
REMARK  status: ('A' for Active; 'I' for Inactive)
REMARK    1  A    between atoms: C_2  and  N_4
REMARK    2  A    between atoms: N_4  and  C_5
REMARK    3  A    between atoms: C_5  and  C_6
REMARK    4  A    between atoms: C_6  and  C_8
REMARK                            x       y       z     vdW  Elec       q    Type
REMARK                         _______ _______ _______ _____ _____    ______ ____
ROOT
ATOM      8  C   UNL     1      -0.868  -0.665  -0.802  0.00  0.00    +0.000 A 
ATOM      9  C   UNL     1      -1.736  -0.048  -1.663  0.00  0.00    +0.000 A 
ATOM     10  C   UNL     1      -2.739   0.714  -1.073  0.00  0.00    +0.000 A 
ATOM     11  C   UNL     1      -2.972   0.628   0.294  0.00  0.00    +0.000 A 
ATOM     12  O   UNL     1      -4.212   1.051   0.744  0.00  0.00    +0.000 OA
ATOM     13  C   UNL     1      -2.166  -0.204   1.061  0.00  0.00    +0.000 A 
ATOM     14  O   UNL     1      -2.300  -0.068   2.444  0.00  0.00    +0.000 OA
ATOM     15  C   UNL     1      -0.944  -0.614   0.540  0.00  0.00    +0.000 A 
ENDROOT
BRANCH   8   6
ATOM      6  C   UNL     1       0.624  -0.941  -1.451  0.00  0.00    +0.000 C 
ATOM      7  O   UNL     1       0.897  -2.115  -0.469  0.00  0.00    +0.000 OA
BRANCH   6   5
ATOM      5  C   UNL     1       1.385   0.161  -0.421  0.00  0.00    +0.000 C 
BRANCH   5   4
ATOM      4  N   UNL     1       2.736  -0.359  -0.517  0.00  0.00    +0.000 NA
BRANCH   4   2
ATOM      1  C   UNL     1       3.547   1.742  -0.723  0.00  0.00    +0.000 C 
ATOM      2  C   UNL     1       3.690   0.663  -0.884  0.00  0.00    +0.000 C 
ATOM      3  C   UNL     1       5.058   0.052  -0.710  0.00  0.00    +0.000 C 
ENDBRANCH   4   2
ENDBRANCH   5   4
ENDBRANCH   6   5
ENDBRANCH   8   6
TORSDOF 4
