REMARK  Name = 
REMARK  3 active torsions:
REMARK  status: ('A' for Active; 'I' for Inactive)
REMARK    1  A    between atoms: C_2  and  C_3
REMARK    2  A    between atoms: C_3  and  C_4
REMARK    3  A    between atoms: C_9  and  O_10
REMARK                            x       y       z     vdW  Elec       q    Type
REMARK                         _______ _______ _______ _____ _____    ______ ____
ROOT
ATOM      4  C   UNL     1       0.943   0.128   0.167  0.00  0.00    +0.000 A 
ATOM      5  C   UNL     1       0.787  -1.210   0.512  0.00  0.00    +0.000 A 
ATOM      6  C   UNL     1      -0.289  -1.847  -0.084  0.00  0.00    +0.000 A 
ATOM      7  C   UNL     1      -1.331  -1.118  -0.634  0.00  0.00    +0.000 A 
ATOM      8  O   UNL     1      -2.555  -1.744  -0.849  0.00  0.00    +0.000 OA
ATOM      9  C   UNL     1      -1.382   0.237  -0.341  0.00  0.00    +0.000 A 
ATOM     12  C   UNL     1      -0.233   0.866   0.108  0.00  0.00    +0.000 A 
ENDROOT
BRANCH   9  10
ATOM     10  O   UNL     1      -2.576   0.919  -0.226  0.00  0.00    +0.000 OA
ATOM     11  C   UNL     1      -2.756   2.177  -0.850  0.00  0.00    +0.000 C 
ENDBRANCH   9  10
BRANCH   4   3
ATOM      3  C   UNL     1       2.232   0.806   0.514  0.00  0.00    +0.000 C 
BRANCH   3   2
ATOM      1  C   UNL     1       4.047  -0.064  -0.930  0.00  0.00    +0.000 C 
ATOM      2  C   UNL     1       3.113   0.850  -0.699  0.00  0.00    +0.000 C 
ENDBRANCH   3   2
ENDBRANCH   4   3
TORSDOF 3
