REMARK  Name = 
REMARK  4 active torsions:
REMARK  status: ('A' for Active; 'I' for Inactive)
REMARK    1  A    between atoms: C_3  and  C_4
REMARK    2  A    between atoms: C_4  and  C_5
REMARK    3  A    between atoms: N_9  and  C_10
REMARK    4  A    between atoms: C_10  and  C_11
REMARK                            x       y       z     vdW  Elec       q    Type
REMARK                         _______ _______ _______ _____ _____    ______ ____
ROOT
ATOM      1  C   UNL     1       0.940  -0.051  -1.378  0.00  0.00    +0.000 C 
ATOM      2  C   UNL     1       1.508   0.087   0.008  0.00  0.00    +0.000 A 
ATOM      3  C   UNL     1       2.610   0.908   0.160  0.00  0.00    +0.000 A 
ATOM      7  S   UNL     1       2.962   0.708   1.827  0.00  0.00    +0.000 S 
ATOM      8  C   UNL     1       1.477  -0.036   2.249  0.00  0.00    +0.000 A 
ATOM      9  N   UNL     1       0.760  -0.019   1.096  0.00  0.00    +0.000 N 
ENDROOT
BRANCH   3   4
ATOM      4  C   UNL     1       3.652   1.220  -0.872  0.00  0.00    +0.000 C 
BRANCH   4   5
ATOM      5  C   UNL     1       4.857   0.309  -0.724  0.00  0.00    +0.000 C 
ATOM      6  O   UNL     1       6.056   0.987  -0.842  0.00  0.00    +0.000 OA
ENDBRANCH   4   5
ENDBRANCH   3   4
BRANCH   9  10
ATOM     10  C   UNL     1      -0.427  -0.883   1.119  0.00  0.00    +0.000 C 
BRANCH  10  11
ATOM     11  C   UNL     1      -1.499  -0.376   0.240  0.00  0.00    +0.000 A 
ATOM     12  C   UNL     1      -2.168   0.771   0.651  0.00  0.00    +0.000 A 
ATOM     13  N   UNL     1      -3.479   0.950   0.368  0.00  0.00    +0.000 NA
ATOM     14  C   UNL     1      -4.147   0.067  -0.410  0.00  0.00    +0.000 A 
ATOM     15  C   UNL     1      -5.391   0.479  -1.127  0.00  0.00    +0.000 C 
ATOM     16  N   UNL     1      -3.627  -1.161  -0.551  0.00  0.00    +0.000 NA
ATOM     17  C   UNL     1      -2.284  -1.306  -0.432  0.00  0.00    +0.000 A 
ATOM     18  N   UNL     1      -1.801  -2.653  -0.493  0.00  0.00    +0.000 NA
ENDBRANCH  10  11
ENDBRANCH   9  10
TORSDOF 4
