REMARK  Name = 
REMARK  2 active torsions:
REMARK  status: ('A' for Active; 'I' for Inactive)
REMARK    1  A    between atoms: N1_4  and  C1*_5
REMARK    2  A    between atoms: C4*_9  and  C5*_10
REMARK                            x       y       z     vdW  Elec       q    Type
REMARK                         _______ _______ _______ _____ _____    ______ ____
ROOT
ATOM      1  C5M   T A   1       3.386  -1.221   1.283  0.00  0.00    +0.000 C 
ATOM      2  C5    T A   1       2.777  -0.668   0.143  0.00  0.00    +0.000 A 
ATOM      3  C6    T A   1       1.607  -1.188  -0.410  0.00  0.00    +0.000 A 
ATOM      4  N1    T A   1       0.635  -0.382  -0.920  0.00  0.00    +0.000 N 
ATOM     13  C2    T A   1       0.745   0.931  -0.793  0.00  0.00    +0.000 A 
ATOM     14  O2    T A   1      -0.154   1.554  -1.424  0.00  0.00    +0.000 OA
ATOM     15  N3    T A   1       2.023   1.384  -0.795  0.00  0.00    +0.000 NA
ATOM     16  C4    T A   1       2.929   0.701  -0.087  0.00  0.00    +0.000 A 
ATOM     17  O4    T A   1       3.800   1.267   0.648  0.00  0.00    +0.000 OA
ENDROOT
BRANCH   4   5
ATOM      5  C1*   T A   1      -0.797  -0.973  -0.465  0.00  0.00    +0.000 C 
ATOM      6  C2*   T A   1      -1.697   0.209  -1.234  0.00  0.00    +0.000 C 
ATOM      7  C3*   T A   1      -3.031  -0.184  -0.345  0.00  0.00    +0.000 C 
ATOM      8  O3*   T A   1      -3.142  -1.507  -1.103  0.00  0.00    +0.000 OA
ATOM      9  C4*   T A   1      -2.153  -0.972   0.939  0.00  0.00    +0.000 C 
ATOM     12  O4*   T A   1      -0.943  -0.066   0.793  0.00  0.00    +0.000 OA
BRANCH   9  10
ATOM     10  C5*   T A   1      -2.823  -0.050   2.141  0.00  0.00    +0.000 C 
ATOM     11  O5*   T A   1      -3.162   1.165   1.628  0.00  0.00    +0.000 OA
ENDBRANCH   9  10
ENDBRANCH   4   5
TORSDOF 2
