REMARK  Name = 
REMARK  2 active torsions:
REMARK  status: ('A' for Active; 'I' for Inactive)
REMARK    1  A    between atoms: C_2  and  C_3
REMARK    2  A    between atoms: C_3  and  C_4
REMARK                            x       y       z     vdW  Elec       q    Type
REMARK                         _______ _______ _______ _____ _____    ______ ____
ROOT
ATOM      4  C   UNL     1       0.701   0.938   0.381  0.00  0.00    +0.000 A 
ATOM      5  C   UNL     1      -0.098   1.657  -0.500  0.00  0.00    +0.000 A 
ATOM      6  C   UNL     1      -1.265   1.112  -1.022  0.00  0.00    +0.000 A 
ATOM      7  C   UNL     1      -1.710  -0.092  -0.545  0.00  0.00    +0.000 A 
ATOM      8  O   UNL     1      -2.555  -0.913  -1.254  0.00  0.00    +0.000 OA
ATOM      9  C   UNL     1      -1.123  -0.599   0.607  0.00  0.00    +0.000 A 
ATOM     10  O   UNL     1      -1.811  -1.612   1.257  0.00  0.00    +0.000 OA
ATOM     11  C   UNL     1       0.095  -0.107   1.052  0.00  0.00    +0.000 A 
ENDROOT
BRANCH   4   3
ATOM      3  C   UNL     1       2.188   1.046   0.250  0.00  0.00    +0.000 C 
BRANCH   3   2
ATOM      1  N   UNL     1       2.733  -1.132  -0.705  0.00  0.00    +0.000 NA
ATOM      2  C   UNL     1       2.844  -0.297   0.479  0.00  0.00    +0.000 C 
ENDBRANCH   3   2
ENDBRANCH   4   3
TORSDOF 2
