REMARK  Name = 
REMARK  3 active torsions:
REMARK  status: ('A' for Active; 'I' for Inactive)
REMARK    1  A    between atoms: N_2  and  C_3
REMARK    2  A    between atoms: C_3  and  C_4
REMARK    3  A    between atoms: C_4  and  C_6
REMARK                            x       y       z     vdW  Elec       q    Type
REMARK                         _______ _______ _______ _____ _____    ______ ____
ROOT
ATOM      6  C   UNL     1       0.174  -0.344  -0.308  0.00  0.00    +0.000 A 
ATOM      7  C   UNL     1       0.030   1.021  -0.551  0.00  0.00    +0.000 A 
ATOM      8  C   UNL     1      -1.223   1.593  -0.558  0.00  0.00    +0.000 A 
ATOM      9  C   UNL     1      -2.287   0.877  -0.034  0.00  0.00    +0.000 A 
ATOM     10  O   UNL     1      -3.555   1.411   0.035  0.00  0.00    +0.000 OA
ATOM     11  C   UNL     1      -2.068  -0.404   0.450  0.00  0.00    +0.000 A 
ATOM     12  O   UNL     1      -3.132  -1.174   0.862  0.00  0.00    +0.000 OA
ATOM     13  C   UNL     1      -0.787  -0.874   0.533  0.00  0.00    +0.000 A 
ENDROOT
BRANCH   6   4
ATOM      4  C   UNL     1       1.698  -0.507   0.330  0.00  0.00    +0.000 C 
ATOM      5  O   UNL     1       1.531  -2.049   0.449  0.00  0.00    +0.000 OA
BRANCH   4   3
ATOM      3  C   UNL     1       2.364  -0.664  -1.216  0.00  0.00    +0.000 C 
BRANCH   3   2
ATOM      1  C   UNL     1       3.564   1.197  -0.486  0.00  0.00    +0.000 C 
ATOM      2  N   UNL     1       3.691  -0.083  -1.046  0.00  0.00    +0.000 NA
ENDBRANCH   3   2
ENDBRANCH   4   3
ENDBRANCH   6   4
TORSDOF 3
