REMARK  Name = 
REMARK  0 active torsions:
REMARK  status: ('A' for Active; 'I' for Inactive)
REMARK                            x       y       z     vdW  Elec       q    Type
REMARK                         _______ _______ _______ _____ _____    ______ ____
ROOT
ATOM      1  C   UNL     1      -2.825  -1.470   0.923  0.00  0.00    +0.000 C 
ATOM      2  N   UNL     1      -2.182  -0.411   0.147  0.00  0.00    +0.000 N 
ATOM      3  C   UNL     1      -2.615   0.854  -0.035  0.00  0.00    +0.000 A 
ATOM      4  N   UNL     1      -1.617   1.615  -0.547  0.00  0.00    +0.000 NA
ATOM      5  C   UNL     1      -0.479   0.948  -0.343  0.00  0.00    +0.000 A 
ATOM      6  C   UNL     1      -0.865  -0.373  -0.156  0.00  0.00    +0.000 A 
ATOM      7  C   UNL     1       0.149  -1.303  -0.089  0.00  0.00    +0.000 A 
ATOM      8  O   UNL     1      -0.082  -2.481   0.256  0.00  0.00    +0.000 OA
ATOM      9  N   UNL     1       1.430  -0.868  -0.157  0.00  0.00    +0.000 N 
ATOM     10  C   UNL     1       2.503  -1.859  -0.197  0.00  0.00    +0.000 C 
ATOM     11  C   UNL     1       1.750   0.439   0.003  0.00  0.00    +0.000 A 
ATOM     12  O   UNL     1       2.957   0.823  -0.004  0.00  0.00    +0.000 OA
ATOM     13  N   UNL     1       0.788   1.361  -0.095  0.00  0.00    +0.000 N 
ATOM     14  C   UNL     1       1.089   2.727   0.295  0.00  0.00    +0.000 C 
ENDROOT
TORSDOF 0
