REMARK  Name = 
REMARK  3 active torsions:
REMARK  status: ('A' for Active; 'I' for Inactive)
REMARK    1  A    between atoms: N_6  and  C_7
REMARK    2  A    between atoms: C_7  and  C_8
REMARK    3  A    between atoms: C_8  and  C_10
REMARK                            x       y       z     vdW  Elec       q    Type
REMARK                         _______ _______ _______ _____ _____    ______ ____
ROOT
ATOM      1  C   UNL     1      -2.686   1.022   2.195  0.00  0.00    +0.000 C 
ATOM      2  N   UNL     1      -2.009   0.455   1.123  0.00  0.00    +0.000 N 
ATOM      3  C   UNL     1      -1.000  -0.435   1.298  0.00  0.00    +0.000 A 
ATOM      4  N   UNL     1      -0.297  -0.795   2.399  0.00  0.00    +0.000 NA
ATOM      5  C   UNL     1       0.935  -1.167   1.975  0.00  0.00    +0.000 A 
ATOM      6  N   UNL     1       1.102  -0.793   0.681  0.00  0.00    +0.000 N 
ATOM     12  C   UNL     1      -0.173  -0.739   0.222  0.00  0.00    +0.000 A 
ATOM     13  C   UNL     1      -0.752  -0.635  -1.022  0.00  0.00    +0.000 A 
ATOM     14  O   UNL     1      -0.124  -1.097  -2.020  0.00  0.00    +0.000 OA
ATOM     15  N   UNL     1      -1.861   0.119  -1.210  0.00  0.00    +0.000 N 
ATOM     16  C   UNL     1      -2.650  -0.073  -2.418  0.00  0.00    +0.000 C 
ATOM     17  C   UNL     1      -2.417   0.739  -0.141  0.00  0.00    +0.000 A 
ATOM     18  O   UNL     1      -3.144   1.745  -0.402  0.00  0.00    +0.000 OA
ENDROOT
BRANCH   6   7
ATOM      7  C   UNL     1       2.196  -1.240  -0.147  0.00  0.00    +0.000 C 
BRANCH   7   8
ATOM      8  C   UNL     1       2.529   0.096  -1.098  0.00  0.00    +0.000 C 
ATOM      9  O   UNL     1       3.986  -0.360  -1.298  0.00  0.00    +0.000 OA
BRANCH   8  10
ATOM     10  C   UNL     1       2.947   1.007   0.241  0.00  0.00    +0.000 C 
ATOM     11  O   UNL     1       3.416   2.150  -0.379  0.00  0.00    +0.000 OA
ENDBRANCH   8  10
ENDBRANCH   7   8
ENDBRANCH   6   7
TORSDOF 3
