REMARK  Name = 
REMARK  0 active torsions:
REMARK  status: ('A' for Active; 'I' for Inactive)
REMARK                            x       y       z     vdW  Elec       q    Type
REMARK                         _______ _______ _______ _____ _____    ______ ____
ROOT
ATOM      1  C   UNL     1      -1.986  -1.895   1.270  0.00  0.00    +0.000 C 
ATOM      2  N   UNL     1      -2.416  -1.971   0.015  0.00  0.00    +0.000 NA
ATOM      3  C   UNL     1      -3.679  -1.377  -0.288  0.00  0.00    +0.000 C 
ATOM      4  C   UNL     1      -3.666   0.098  -0.498  0.00  0.00    +0.000 C 
ATOM      5  C   UNL     1      -2.464   0.777   0.031  0.00  0.00    +0.000 A 
ATOM      6  C   UNL     1      -2.498   2.167   0.058  0.00  0.00    +0.000 A 
ATOM      7  C   UNL     1      -1.309   2.836   0.320  0.00  0.00    +0.000 A 
ATOM      8  C   UNL     1      -0.152   2.104   0.562  0.00  0.00    +0.000 A 
ATOM      9  C   UNL     1      -0.120   0.806   0.093  0.00  0.00    +0.000 A 
ATOM     10  C   UNL     1      -1.285   0.060   0.206  0.00  0.00    +0.000 A 
ATOM     11  C   UNL     1      -1.346  -1.177  -0.877  0.00  0.00    +0.000 C 
ATOM     12  C   UNL     1      -0.065  -1.959  -0.133  0.00  0.00    +0.000 C 
ATOM     13  C   UNL     1       1.122  -1.148  -0.551  0.00  0.00    +0.000 A 
ATOM     14  C   UNL     1       2.272  -1.697  -1.068  0.00  0.00    +0.000 A 
ATOM     15  C   UNL     1       3.474  -1.032  -0.855  0.00  0.00    +0.000 A 
ATOM     16  C   UNL     1       3.552   0.104  -0.060  0.00  0.00    +0.000 A 
ATOM     17  O   UNL     1       4.663   0.365   0.745  0.00  0.00    +0.000 OA
ATOM     18  C   UNL     1       2.373   0.794   0.199  0.00  0.00    +0.000 A 
ATOM     19  O   UNL     1       2.356   1.986   0.930  0.00  0.00    +0.000 OA
ATOM     20  C   UNL     1       1.176   0.159  -0.096  0.00  0.00    +0.000 A 
ENDROOT
TORSDOF 0
