REMARK  Name = 
REMARK  1 active torsions:
REMARK  status: ('A' for Active; 'I' for Inactive)
REMARK    1  A    between atoms: C_2  and  C_4
REMARK                            x       y       z     vdW  Elec       q    Type
REMARK                         _______ _______ _______ _____ _____    ______ ____
ROOT
ATOM      4  C   UNL     1       0.293  -0.252   0.085  0.00  0.00    +0.000 A 
ATOM      5  C   UNL     1      -0.347  -0.492  -1.118  0.00  0.00    +0.000 A 
ATOM      6  C   UNL     1      -1.705  -0.217  -1.167  0.00  0.00    +0.000 A 
ATOM      7  C   UNL     1      -2.418   0.127  -0.030  0.00  0.00    +0.000 A 
ATOM      8  C   UNL     1      -1.706   0.385   1.135  0.00  0.00    +0.000 A 
ATOM      9  C   UNL     1      -0.421  -0.129   1.270  0.00  0.00    +0.000 A 
ENDROOT
BRANCH   4   2
ATOM      1  O   UNL     1       2.525  -0.857   0.179  0.00  0.00    +0.000 OA
ATOM      2  C   UNL     1       1.722   0.081   0.029  0.00  0.00    +0.000 C 
ATOM      3  O   UNL     1       2.058   1.354  -0.385  0.00  0.00    +0.000 OA
ENDBRANCH   4   2
TORSDOF 1
