REMARK  Name = 
REMARK  1 active torsions:
REMARK  status: ('A' for Active; 'I' for Inactive)
REMARK    1  A    between atoms: C_2  and  C_4
REMARK                            x       y       z     vdW  Elec       q    Type
REMARK                         _______ _______ _______ _____ _____    ______ ____
ROOT
ATOM      4  C   UNL     1       0.326  -0.356   0.222  0.00  0.00    +0.000 A 
ATOM      5  C   UNL     1      -0.354  -0.815  -0.901  0.00  0.00    +0.000 A 
ATOM      6  C   UNL     1      -1.703  -0.519  -1.051  0.00  0.00    +0.000 A 
ATOM      7  C   UNL     1      -2.278   0.450  -0.236  0.00  0.00    +0.000 A 
ATOM      8  N   UNL     1      -1.772   0.510   1.020  0.00  0.00    +0.000 NA
ATOM      9  C   UNL     1      -0.519   0.050   1.248  0.00  0.00    +0.000 A 
ENDROOT
BRANCH   4   2
ATOM      1  O   UNL     1       2.623  -0.752   0.042  0.00  0.00    +0.000 OA
ATOM      2  C   UNL     1       1.720   0.103   0.142  0.00  0.00    +0.000 C 
ATOM      3  O   UNL     1       1.958   1.330  -0.485  0.00  0.00    +0.000 OA
ENDBRANCH   4   2
TORSDOF 1
