REMARK  Name = 
REMARK  1 active torsions:
REMARK  status: ('A' for Active; 'I' for Inactive)
REMARK    1  A    between atoms: C_2  and  C_4
REMARK                            x       y       z     vdW  Elec       q    Type
REMARK                         _______ _______ _______ _____ _____    ______ ____
ROOT
ATOM      4  C   UNL     1       0.258  -0.263  -0.270  0.00  0.00    +0.000 A 
ATOM      5  C   UNL     1      -0.591  -1.331  -0.526  0.00  0.00    +0.000 A 
ATOM      6  C   UNL     1      -1.958  -1.238  -0.292  0.00  0.00    +0.000 A 
ATOM      7  C   UNL     1      -2.415  -0.132   0.415  0.00  0.00    +0.000 A 
ATOM      8  C   UNL     1      -1.693   1.037   0.201  0.00  0.00    +0.000 A 
ATOM      9  C   UNL     1      -0.312   0.956   0.073  0.00  0.00    +0.000 A 
ATOM     10  O   UNL     1       0.446   2.121  -0.069  0.00  0.00    +0.000 OA
ENDROOT
BRANCH   4   2
ATOM      1  N   UNL     1       2.676   0.161  -0.767  0.00  0.00    +0.000 NA
ATOM      2  C   UNL     1       1.664  -0.468   0.027  0.00  0.00    +0.000 C 
ATOM      3  O   UNL     1       1.925  -0.844   1.209  0.00  0.00    +0.000 OA
ENDBRANCH   4   2
TORSDOF 1
