REMARK  Name = 
REMARK  8 active torsions:
REMARK  status: ('A' for Active; 'I' for Inactive)
REMARK    1  A    between atoms: CA_2  and  C_3
REMARK    2  A    between atoms: CA_2  and  C_17
REMARK    3  A    between atoms: C_3  and  C_4
REMARK    4  A    between atoms: C_7  and  N_8
REMARK    5  A    between atoms: N_8  and  C_9
REMARK    6  A    between atoms: N_8  and  C_12
REMARK    7  A    between atoms: C_9  and  C_10
REMARK    8  A    between atoms: C_12  and  C_13
REMARK                            x       y       z     vdW  Elec       q    Type
REMARK                         _______ _______ _______ _____ _____    ______ ____
ROOT
ATOM      4  C   UNL     1       1.281   0.269  -0.307  0.00  0.00    +0.000 A 
ATOM      5  C   UNL     1       0.464   0.935  -1.182  0.00  0.00    +0.000 A 
ATOM      6  C   UNL     1      -0.882   0.684  -1.245  0.00  0.00    +0.000 A 
ATOM      7  C   UNL     1      -1.456   0.055  -0.151  0.00  0.00    +0.000 A 
ATOM     15  C   UNL     1      -0.657  -0.844   0.520  0.00  0.00    +0.000 A 
ATOM     16  C   UNL     1       0.726  -0.740   0.439  0.00  0.00    +0.000 A 
ENDROOT
BRANCH   4   3
ATOM      3  C   UNL     1       2.750   0.429  -0.515  0.00  0.00    +0.000 C 
BRANCH   3   2
ATOM      1  N   UNL     1       3.911   1.111   1.407  0.00  0.00    +0.000 NA
ATOM      2  CA  UNL     1       3.366  -0.299   0.863  0.00  0.00    +0.000 C 
BRANCH   2  17
ATOM     17  C   UNL     1       4.796  -0.602   0.108  0.00  0.00    +0.000 C 
ATOM     18  O   UNL     1       4.565  -1.478  -0.758  0.00  0.00    +0.000 OA
ATOM     19  OXT UNL     1       5.858  -0.655   0.998  0.00  0.00    +0.000 OA
ENDBRANCH   2  17
ENDBRANCH   3   2
ENDBRANCH   4   3
BRANCH   7   8
ATOM      8  N   UNL     1      -2.864   0.044  -0.041  0.00  0.00    +0.000 N 
BRANCH   8   9
ATOM      9  C   UNL     1      -3.672   0.936  -0.828  0.00  0.00    +0.000 C 
BRANCH   9  10
ATOM     10  C   UNL     1      -4.093   2.162  -0.034  0.00  0.00    +0.000 C 
ATOM     11 CL   UNL     1      -2.798   3.389  -0.014  0.00  0.00    +0.000 Cl
ENDBRANCH   9  10
ENDBRANCH   8   9
BRANCH   8  12
ATOM     12  C   UNL     1      -3.463  -0.678   1.052  0.00  0.00    +0.000 C 
BRANCH  12  13
ATOM     13  C   UNL     1      -3.487  -2.169   0.777  0.00  0.00    +0.000 C 
ATOM     14 CL   UNL     1      -4.347  -2.551  -0.725  0.00  0.00    +0.000 Cl
ENDBRANCH  12  13
ENDBRANCH   8  12
ENDBRANCH   7   8
TORSDOF 8
