REMARK  Name = 
REMARK  2 active torsions:
REMARK  status: ('A' for Active; 'I' for Inactive)
REMARK    1  A    between atoms: C_2  and  C_3
REMARK    2  A    between atoms: C_3  and  C_5
REMARK                            x       y       z     vdW  Elec       q    Type
REMARK                         _______ _______ _______ _____ _____    ______ ____
ROOT
ATOM      5  C   UNL     1       0.548  -0.092  -0.508  0.00  0.00    +0.000 A 
ATOM      6  C   UNL     1      -0.151  -1.272  -0.738  0.00  0.00    +0.000 A 
ATOM      7  C   UNL     1      -1.496  -1.433  -0.513  0.00  0.00    +0.000 A 
ATOM      8  C   UNL     1      -2.198  -0.420   0.121  0.00  0.00    +0.000 A 
ATOM      9  O   UNL     1      -3.229  -0.700   1.009  0.00  0.00    +0.000 OA
ATOM     10  C   UNL     1      -1.583   0.815   0.135  0.00  0.00    +0.000 A 
ATOM     11  O   UNL     1      -2.454   1.903   0.195  0.00  0.00    +0.000 OA
ATOM     12  C   UNL     1      -0.209   0.965  -0.008  0.00  0.00    +0.000 A 
ENDROOT
BRANCH   5   3
ATOM      3  C   UNL     1       1.865  -0.400   0.454  0.00  0.00    +0.000 C 
ATOM      4  O   UNL     1       2.475  -1.339  -0.619  0.00  0.00    +0.000 OA
BRANCH   3   2
ATOM      1  N   UNL     1       3.720   1.056   0.641  0.00  0.00    +0.000 NA
ATOM      2  C   UNL     1       2.713   0.918  -0.168  0.00  0.00    +0.000 C 
ENDBRANCH   3   2
ENDBRANCH   5   3
TORSDOF 2
