REMARK  Name = 
REMARK  3 active torsions:
REMARK  status: ('A' for Active; 'I' for Inactive)
REMARK    1  A    between atoms: N_6  and  C_7
REMARK    2  A    between atoms: C_7  and  C_8
REMARK    3  A    between atoms: C_8  and  C_10
REMARK                            x       y       z     vdW  Elec       q    Type
REMARK                         _______ _______ _______ _____ _____    ______ ____
ROOT
ATOM      1  C   UNL     1       3.137  -1.636  -0.029  0.00  0.00    +0.000 C 
ATOM      2  N   UNL     1       2.487  -0.814   0.059  0.00  0.00    +0.000 N 
ATOM      3  C   UNL     1       1.176  -0.984  -0.187  0.00  0.00    +0.000 A 
ATOM      4  N   UNL     1       0.581  -2.016  -0.827  0.00  0.00    +0.000 NA
ATOM      5  C   UNL     1      -0.740  -1.766  -0.771  0.00  0.00    +0.000 A 
ATOM      6  N   UNL     1      -0.980  -0.522  -0.322  0.00  0.00    +0.000 N 
ATOM     12  C   UNL     1       0.237   0.013  -0.092  0.00  0.00    +0.000 A 
ATOM     13  C   UNL     1       0.637   1.263   0.344  0.00  0.00    +0.000 A 
ATOM     14  O   UNL     1      -0.128   2.264   0.197  0.00  0.00    +0.000 OA
ATOM     15  N   UNL     1       1.951   1.419   0.561  0.00  0.00    +0.000 N 
ATOM     16  C   UNL     1       2.469   2.778   0.578  0.00  0.00    +0.000 C 
ATOM     17  C   UNL     1       2.866   0.440   0.394  0.00  0.00    +0.000 A 
ATOM     18  O   UNL     1       4.037   0.518   0.874  0.00  0.00    +0.000 OA
ENDROOT
BRANCH   6   7
ATOM      7  C   UNL     1      -2.232   0.145  -0.059  0.00  0.00    +0.000 C 
BRANCH   7   8
ATOM      8  C   UNL     1      -3.286  -0.572  -1.109  0.00  0.00    +0.000 C 
ATOM      9  O   UNL     1      -3.258  -1.890  -0.351  0.00  0.00    +0.000 OA
BRANCH   8  10
ATOM     10  C   UNL     1      -4.585  -0.015  -0.252  0.00  0.00    +0.000 C 
ATOM     11  O   UNL     1      -4.370   1.377  -0.278  0.00  0.00    +0.000 OA
ENDBRANCH   8  10
ENDBRANCH   7   8
ENDBRANCH   6   7
TORSDOF 3
