REMARK  Name = 
REMARK  0 active torsions:
REMARK  status: ('A' for Active; 'I' for Inactive)
REMARK                            x       y       z     vdW  Elec       q    Type
REMARK                         _______ _______ _______ _____ _____    ______ ____
ROOT
ATOM      1  N   UNL     1      -1.590   2.095  -0.133  0.00  0.00    +0.000 NA
ATOM      2  C   UNL     1      -1.137   0.746  -0.216  0.00  0.00    +0.000 A 
ATOM      3  N   UNL     1      -1.994  -0.296  -0.238  0.00  0.00    +0.000 NA
ATOM      4  C   UNL     1      -1.520  -1.490  -0.653  0.00  0.00    +0.000 A 
ATOM      5  N   UNL     1      -0.235  -1.794  -0.348  0.00  0.00    +0.000 NA
ATOM      6  C   UNL     1       0.683  -0.824  -0.290  0.00  0.00    +0.000 A 
ATOM      7  N   UNL     1       1.960  -0.732   0.153  0.00  0.00    +0.000 NA
ATOM      8  C   UNL     1       2.279   0.568   0.372  0.00  0.00    +0.000 A 
ATOM      9  N   UNL     1       1.334   1.245  -0.325  0.00  0.00    +0.000 NA
ATOM     10  C   UNL     1       0.219   0.483  -0.346  0.00  0.00    +0.000 A 
ENDROOT
TORSDOF 0
