REMARK  Name = 
REMARK  2 active torsions:
REMARK  status: ('A' for Active; 'I' for Inactive)
REMARK    1  A    between atoms: O_2  and  C_3
REMARK    2  A    between atoms: C_3  and  C_5
REMARK                            x       y       z     vdW  Elec       q    Type
REMARK                         _______ _______ _______ _____ _____    ______ ____
ROOT
ATOM      5  C   UNL     1      -0.118  -0.092   0.437  0.00  0.00    +0.000 A 
ATOM      6  C   UNL     1      -0.583   1.190   0.679  0.00  0.00    +0.000 A 
ATOM      7  C   UNL     1      -1.919   1.462   0.496  0.00  0.00    +0.000 A 
ATOM      8  C   UNL     1      -2.717   0.682  -0.326  0.00  0.00    +0.000 A 
ATOM      9  C   UNL     1      -2.214  -0.568  -0.653  0.00  0.00    +0.000 A 
ATOM     10  C   UNL     1      -0.889  -0.890  -0.387  0.00  0.00    +0.000 A 
ATOM     11  O   UNL     1      -0.291  -1.824  -1.239  0.00  0.00    +0.000 OA
ENDROOT
BRANCH   5   3
ATOM      3  C   UNL     1       1.338  -0.286   0.443  0.00  0.00    +0.000 C 
ATOM      4  O   UNL     1       1.865  -0.360   1.593  0.00  0.00    +0.000 OA
BRANCH   3   2
ATOM      1  C   UNL     1       3.394   0.649  -0.383  0.00  0.00    +0.000 C 
ATOM      2  O   UNL     1       2.135   0.036  -0.660  0.00  0.00    +0.000 OA
ENDBRANCH   3   2
ENDBRANCH   5   3
TORSDOF 2
