REMARK  Name = 
REMARK  3 active torsions:
REMARK  status: ('A' for Active; 'I' for Inactive)
REMARK    1  A    between atoms: N_2  and  C_3
REMARK    2  A    between atoms: C_3  and  C_5
REMARK    3  A    between atoms: C_5  and  C_7
REMARK                            x       y       z     vdW  Elec       q    Type
REMARK                         _______ _______ _______ _____ _____    ______ ____
ROOT
ATOM      5  C   UNL     1      -0.981   0.776   0.851  0.00  0.00    +0.000 C 
ATOM      6  O   UNL     1      -1.165  -0.561   1.600  0.00  0.00    +0.000 OA
ENDROOT
BRANCH   5   7
ATOM      7  C   UNL     1       0.616   0.545   0.572  0.00  0.00    +0.000 A 
ATOM      8  C   UNL     1       1.135   1.353  -0.405  0.00  0.00    +0.000 A 
ATOM      9  C   UNL     1       2.424   1.038  -0.825  0.00  0.00    +0.000 A 
ATOM     10  C   UNL     1       2.879  -0.267  -0.663  0.00  0.00    +0.000 A 
ATOM     11  C   UNL     1       2.415  -0.960   0.419  0.00  0.00    +0.000 A 
ATOM     12  C   UNL     1       1.221  -0.557   0.986  0.00  0.00    +0.000 A 
ENDBRANCH   5   7
BRANCH   5   3
ATOM      3  C   UNL     1      -1.396   0.092  -0.716  0.00  0.00    +0.000 C 
ATOM      4  C   UNL     1      -2.381   1.365  -1.074  0.00  0.00    +0.000 C 
BRANCH   3   2
ATOM      1  C   UNL     1      -2.145  -2.073  -0.566  0.00  0.00    +0.000 C 
ATOM      2  N   UNL     1      -2.621  -0.749  -0.180  0.00  0.00    +0.000 NA
ENDBRANCH   3   2
ENDBRANCH   5   3
TORSDOF 3
