REMARK  Name = 
REMARK  0 active torsions:
REMARK  status: ('A' for Active; 'I' for Inactive)
REMARK                            x       y       z     vdW  Elec       q    Type
REMARK                         _______ _______ _______ _____ _____    ______ ____
ROOT
ATOM      1  O   UNL     1      -1.298   2.347   0.200  0.00  0.00    +0.000 OA
ATOM      2  C   UNL     1      -1.183   0.981  -0.072  0.00  0.00    +0.000 A 
ATOM      3  C   UNL     1      -2.300   0.193   0.146  0.00  0.00    +0.000 A 
ATOM      4  C   UNL     1      -2.139  -1.180  -0.005  0.00  0.00    +0.000 A 
ATOM      5  C   UNL     1      -0.867  -1.741   0.014  0.00  0.00    +0.000 A 
ATOM      6  C   UNL     1       0.272  -0.953  -0.021  0.00  0.00    +0.000 A 
ATOM      7  C   UNL     1       1.513  -1.415   0.401  0.00  0.00    +0.000 A 
ATOM      8  C   UNL     1       2.488  -0.435   0.546  0.00  0.00    +0.000 A 
ATOM      9  C   UNL     1       2.349   0.662  -0.296  0.00  0.00    +0.000 A 
ATOM     10  N   UNL     1       1.121   1.156  -0.593  0.00  0.00    +0.000 NA
ATOM     11  C   UNL     1       0.045   0.384  -0.321  0.00  0.00    +0.000 A 
ENDROOT
TORSDOF 0
