REMARK  Name = 
REMARK  1 active torsions:
REMARK  status: ('A' for Active; 'I' for Inactive)
REMARK    1  A    between atoms: C_2  and  C_4
REMARK                            x       y       z     vdW  Elec       q    Type
REMARK                         _______ _______ _______ _____ _____    ______ ____
ROOT
ATOM      4  C   UNL     1       0.276  -0.166  -0.211  0.00  0.00    +0.000 A 
ATOM      5  C   UNL     1      -0.437  -1.328  -0.479  0.00  0.00    +0.000 A 
ATOM      6  C   UNL     1      -1.741  -1.412  -0.019  0.00  0.00    +0.000 A 
ATOM      7  C   UNL     1      -2.370  -0.285   0.498  0.00  0.00    +0.000 A 
ATOM      8  C   UNL     1      -1.875   0.913  -0.007  0.00  0.00    +0.000 A 
ATOM      9  C   UNL     1      -0.488   0.987  -0.086  0.00  0.00    +0.000 A 
ATOM     10  O   UNL     1       0.171   2.209   0.085  0.00  0.00    +0.000 OA
ENDROOT
BRANCH   4   2
ATOM      1  O   UNL     1       2.143  -0.496   1.201  0.00  0.00    +0.000 OA
ATOM      2  C   UNL     1       1.718  -0.189   0.046  0.00  0.00    +0.000 C 
ATOM      3  O   UNL     1       2.603  -0.233  -1.028  0.00  0.00    +0.000 OA
ENDBRANCH   4   2
TORSDOF 1
