REMARK  Name = 
REMARK  4 active torsions:
REMARK  status: ('A' for Active; 'I' for Inactive)
REMARK    1  A    between atoms: C_2  and  N_4
REMARK    2  A    between atoms: N_4  and  C_5
REMARK    3  A    between atoms: C_5  and  C_6
REMARK    4  A    between atoms: C_6  and  C_8
REMARK                            x       y       z     vdW  Elec       q    Type
REMARK                         _______ _______ _______ _____ _____    ______ ____
ROOT
ATOM      8  C   UNL     1       0.570  -0.361  -0.194  0.00  0.00    +0.000 A 
ATOM      9  C   UNL     1       1.437  -1.379  -0.600  0.00  0.00    +0.000 A 
ATOM     10  C   UNL     1       2.779  -1.060  -0.791  0.00  0.00    +0.000 A 
ATOM     11  C   UNL     1       3.188   0.247  -0.557  0.00  0.00    +0.000 A 
ATOM     12  O   UNL     1       4.277   0.818  -1.223  0.00  0.00    +0.000 OA
ATOM     13  C   UNL     1       2.416   0.974   0.342  0.00  0.00    +0.000 A 
ATOM     14  O   UNL     1       2.836   2.263   0.683  0.00  0.00    +0.000 OA
ATOM     15  C   UNL     1       1.186   0.466   0.747  0.00  0.00    +0.000 A 
ENDROOT
BRANCH   8   6
ATOM      6  C   UNL     1      -0.800  -1.062   0.384  0.00  0.00    +0.000 C 
ATOM      7  O   UNL     1      -1.386   0.289   0.839  0.00  0.00    +0.000 OA
BRANCH   6   5
ATOM      5  C   UNL     1      -1.560  -0.929  -1.102  0.00  0.00    +0.000 C 
BRANCH   5   4
ATOM      4  N   UNL     1      -2.954  -1.129  -0.797  0.00  0.00    +0.000 NA
BRANCH   4   2
ATOM      1  C   UNL     1      -3.782   1.124  -1.047  0.00  0.00    +0.000 C 
ATOM      2  C   UNL     1      -3.640   0.021  -0.325  0.00  0.00    +0.000 C 
ATOM      3  C   UNL     1      -4.566  -0.280   0.806  0.00  0.00    +0.000 C 
ENDBRANCH   4   2
ENDBRANCH   5   4
ENDBRANCH   6   5
ENDBRANCH   8   6
TORSDOF 4
